opendss/LVTestCase/data/PV/PV_351.txt
New generator.m_gen18 Phases=1 Bus1=337.3 kV=0.23 kW=1 PF=0.95 Yearly=PV_Shape_63
New generator.m_gen20 Phases=1 Bus1=349.1 kV=0.23 kW=1 PF=0.95 Yearly=PV_Shape_95
New generator.m_gen16 Phases=1 Bus1=320.3 kV=0.23 kW=1 PF=0.95 Yearly=PV_Shape_65
New generator.m_gen23 Phases=1 Bus1=406.2 kV=0.23 kW=1 PF=0.95 Yearly=NM_Shape_69
New generator.m_gen43 Phases=1 Bus1=780.3 kV=0.23 kW=1 PF=0.95 Yearly=PV_Shape_110
New generator.m_gen34 Phases=1 Bus1=629.1 kV=0.23 kW=1 PF=0.95 Yearly=PV_Shape_122
New generator.m_gen31 Phases=1 Bus1=611.1 kV=0.23 kW=1 PF=0.95 Yearly=PV_Shape_1
New generator.m_gen11 Phases=1 Bus1=249.2 kV=0.23 kW=1 PF=0.95 Yearly=PV_Shape_25
New generator.m_gen14 Phases=1 Bus1=289.1 kV=0.23 kW=1 PF=0.95 Yearly=PV_Shape_138
New generator.m_gen30 Phases=1 Bus1=563.1 kV=0.23 kW=1 PF=0.95 Yearly=PV_Shape_114
New generator.m_gen32 Phases=1 Bus1=614.3 kV=0.23 kW=1 PF=0.95 Yearly=NM_Shape_133
